Circuit: * Z:\home\joaoantoniocardoso\ZeniteSolar\2021\MAM21\hardware\Simulations\cascade_rc_filter.asc

Direct Newton iteration for .op point succeeded.

Date: Fri Apr 09 20:09:56 2021
Total elapsed time: 0.029 seconds.

tnom = 27
temp = 27
method = trap
totiter = 3
traniter = 0
tranpoints = 0
accept = 0
rejected = 0
matrix size = 7
fillins = 0
solver = Alternate
Matrix Compiler1:      12 opcodes
Matrix Compiler2:      37 opcodes
